IBE_MatlabCode/matpower7.0/softlims_savecase_test_2522818.m
function mpc = softlims_savecase_test_2522818
%SOFTLIMS_SAVECASE_TEST_2522818

%% MATPOWER Case Format : Version 2
mpc.version = '2';

%%-----  Power Flow Data  -----%%
%% system MVA base
mpc.baseMVA = 100;

%% bus data
%	bus_i	type	Pd	Qd	Gs	Bs	area	Vm	Va	baseKV	zone	Vmax	Vmin	lam_P	lam_Q	mu_Vmax	mu_Vmin
mpc.bus = [
	10	3	0	0	0	0	1	1	0	345	1	1.1	0.9	50.0000	0.0000	0.0000	0.0000;
	20	2	0	0	0	0	1	1	7.32686527	345	1	1.1	0.9	40.0000	0.0000	0.0000	0.0000;
	30	2	0	0	0	0	1	1	20.9090802	345	1	1.1	0.9	25.0000	0.0000	0.0000	0.0000;
	40	1	0	0	0	0	1	1	-0.418700787	345	1	1.1	0.9	50.0000	0.0000	0.0000	0.0000;
	50	1	90	30	0	0	1	1	1.16266273	345	1	1.1	0.9	53.7398	0.0000	0.0000	0.0000;
	60	1	0	0	0	0	1	1	12.8510017	345	1	1.1	0.9	25.0000	0.0000	0.0000	0.0000;
	70	1	100	35	0	0	1	1	5.92050426	345	1	1.1	0.9	37.0732	0.0000	0.0000	0.0000;
	80	1	0	0	0	0	1	1	5.09544503	345	1	1.1	0.9	40.0000	0.0000	0.0000	0.0000;
	90	1	125	50	0	0	1	1	-2.49761759	345	1	1.1	0.9	46.5447	0.0000	0.0000	0.0000;
];

%% generator data
%	bus	Pg	Qg	Qmax	Qmin	Vg	mBase	status	Pmax	Pmin	Pc1	Pc2	Qc1min	Qc1max	Qc2min	Qc2max	ramp_agc	ramp_10	ramp_30	ramp_q	apf	mu_Pmax	mu_Pmin	mu_Qmax	mu_Qmin
mpc.gen = [
	30	240	-10.95	300	-300	1.025	100	1	270	10	0	0	0	0	0	0	0	0	0	0	0	0.0000	0.0000	0.0000	0.0000;
	20	0	0	300	-300	1.025	100	0	300	10	0	0	0	0	0	0	0	0	0	0	0	0.0000	0.0000	0.0000	0.0000;
	10	12.6869919	27.03	300	-300	1.04	100	1	250	10	0	0	0	0	0	0	0	0	0	0	0	0.0000	0.0000	0.0000	0.0000;
	20	62.3130081	6.54	300	-300	1.025	100	1	300	10	0	0	0	0	0	0	0	0	0	0	0	0.0000	0.0000	0.0000	0.0000;
];

%% branch data
%	fbus	tbus	r	x	b	rateA	rateB	rateC	ratio	angle	status	angmin	angmax	Pf	Qf	Pt	Qt	mu_Sf	mu_St	mu_angmin	mu_angmax
mpc.branch = [
	10	40	0	0.0576	0	250	250	250	0	0	1	-60	60	12.6870	0.0000	-12.6870	0.0000	0.0000	0.0000	0.0000	0.0000;
	40	50	0.017	0.092	0.158	0	250	250	0	0	1	-60	60	-30.0000	0.0000	30.0000	0.0000	0.0000	0.0000	0.0000	0.0000;
	50	60	0.039	0.17	0.358	120	150	150	0	0	1	-60	60	-120.0000	0.0000	120.0000	0.0000	0.0000	35.6504	0.0000	0.0000;
	30	60	0	0.0586	0	0	300	300	0	0	1	-60	60	240.0000	0.0000	-240.0000	0.0000	0.0000	0.0000	0.0000	0.0000;
	30	60	0	0.0586	0	0	300	300	0	0	0	-60	60	0.0000	0.0000	0.0000	0.0000	0.0000	0.0000	0.0000	0.0000;
	60	70	0.0119	0.1008	0.209	120	150	150	0	0	1	-60	60	120.0000	0.0000	-120.0000	0.0000	7.9756	0.0000	0.0000	0.0000;
	70	80	0.0085	0.072	0.149	0	250	250	0	0	1	-60	60	20.0000	0.0000	-20.0000	0.0000	0.0000	0.0000	0.0000	0.0000;
	80	20	0	0.0625	0	250	250	250	0	0	1	-60	60	-62.3130	0.0000	62.3130	0.0000	0.0000	0.0000	0.0000	0.0000;
	80	90	0.032	0.161	0.306	250	250	250	0	0	1	-60	60	82.3130	0.0000	-82.3130	0.0000	0.0000	0.0000	0.0000	0.0000;
	90	40	0.01	0.085	0.176	250	250	250	0	0	1	-60	60	-42.6870	0.0000	42.6870	0.0000	0.0000	0.0000	0.0000	0.0000;
];

%%-----  OPF Data  -----%%
%% generator cost data
%	1	startup	shutdown	n	x1	y1	...	xn	yn
%	2	startup	shutdown	n	c(n-1)	...	c0
mpc.gencost = [
	2	3000	0	2	25	0;
	2	2000	0	2	40	0;
	2	1500	0	2	50	0;
	2	2000	0	2	40	0;
];

%% generator unit type (see GENTYPES)
mpc.gentype = {
	'HY';
	'ST';
	'GT';
	'ST';
};

%% generator fuel type (see GENFUELS)
mpc.genfuel = {
	'hydro';
	'coal';
	'ng';
	'coal';
};

%%-----  OPF Soft Limit Data  -----%%
%% VMAX soft limit data
mpc.softlims.VMAX.hl_mod = 'none';      %% type of hard limit modification

%% VMIN soft limit data
mpc.softlims.VMIN.hl_mod = 'none';      %% type of hard limit modification

%% PMAX soft limit data
mpc.softlims.PMAX.hl_mod = 'none';      %% type of hard limit modification

%% PMIN soft limit data
mpc.softlims.PMIN.hl_mod = 'none';      %% type of hard limit modification

%% QMAX soft limit data
mpc.softlims.QMAX.hl_mod = 'none';      %% type of hard limit modification

%% QMIN soft limit data
mpc.softlims.QMIN.hl_mod = 'none';      %% type of hard limit modification

%% RATE_A soft limit data
mpc.softlims.RATE_A.hl_mod = 'remove';  %% type of hard limit modification
mpc.softlims.RATE_A.idx = [             %% branch matrix row indices
	3;
	6;
	8;
	9;
	10;
];
mpc.softlims.RATE_A.cost = [            %% violation cost coefficient
	100;
	100;
	100;
	100;
	100;
];
mpc.softlims.RATE_A.overload = [        %% violation of original limit
	0;
	0;
	0;
	0;
	0;
	0;
	0;
	0;
	0;
	0;
];
mpc.softlims.RATE_A.ovl_cost = [        %% overload cost
	0;
	0;
	0;
	0;
	0;
	0;
	0;
	0;
	0;
	0;
];

%% ANGMAX soft limit data
mpc.softlims.ANGMAX.hl_mod = 'none';    %% type of hard limit modification

%% ANGMIN soft limit data
mpc.softlims.ANGMIN.hl_mod = 'none';    %% type of hard limit modification
